<?xml version="1.0" encoding="UTF-8"?>

<!-- generated on 2025-06-01 12:34:23 by Eclipse SUMO sumo Version 1.20.0
-->

<configuration xmlns:xsi="http://www.w3.org/2001/XMLSchema-instance" xsi:noNamespaceSchemaLocation="http://sumo.dlr.de/xsd/sumoConfiguration.xsd">

    <input>
        <net-file value="teste3.net.xml"/>
        <route-files value="teste3.rou.xml"/>
        <additional-files value="teste3.add.xml"/>
    </input>

</configuration>
