<?xml version="1.0" encoding="UTF-8"?>

<!-- generated on 2025-06-01 12:34:10 by Eclipse SUMO netedit Version 1.20.0
-->

<routes xmlns:xsi="http://www.w3.org/2001/XMLSchema-instance" xsi:noNamespaceSchemaLocation="http://sumo.dlr.de/xsd/routes_file.xsd">
    <!-- Routes -->
    <route id="r_0" edges="E4 E1"/>
    <route id="r_1" edges="E4 E2"/>
</routes>
